---- qbsp / ericw-tools v0.18.1 ----
Input file: Deem_Single_Player.map
Output file: Deem_Single_Player.bsp

---- LoadMapFile ----
*** WARNING 06: No info_player_deathmatch entities in level
        46974 faces
         7800 brushes
           10 entities
           26 unique texnames
         2655 texinfo

Opened WAD: F:/QuakeDev/wads/prototype_1_2.wad
Processing hull 0...
---- Brush_LoadEntity ----
         7800 brushes
         1980 planes
---- CSGFaces ----
        46974 brushfaces
        40387 csgfaces
        37161 mergedfaces
---- SolidBSP ----
        49416 split nodes
        21528 solid leafs
        27123 empty leafs
          766 water leafs
            0 detail leafs
            0 detail illusionary leafs
            0 detail fence leafs
            0 illusionary visblocker leafs
        86675 leaffaces
        81883 nodefaces
---- Portalize ----
        27889 vis leafs
        27889 vis clusters
        95643 vis portals
---- FillOutside ----
         1183 outleafs
---- MergeAll ----
        37328 mergefaces
---- SolidBSP ----
        22842 split nodes
         8510 solid leafs
        13963 empty leafs
          370 water leafs
            0 detail leafs
            0 detail illusionary leafs
            0 detail fence leafs
            0 illusionary visblocker leafs
        61439 leaffaces
        51011 nodefaces
---- Portalize ----
        14333 vis leafs
        14333 vis clusters
        52079 vis portals
---- Tjunc ----
        34950 world edges
       172743 edge points
        40577 edges added by tjunctions
            0 faces added by tjunctions
---- MakeFaceEdges ----
---- GrowRegions ----
Processing hull 1...
*** WARNING 19: No entities in empty space -- no filling performed (hull 1)
Processing hull 2...
*** WARNING 19: No entities in empty space -- no filling performed (hull 2)
---- WriteBSPFile ----
Wrote Deem_Single_Player.bsp
         2770 planes            55400
        65477 vertexes         785724
        22842 nodes           1005048
         2425 texinfo           97000
        51011 faces           1428308
        58625 clipnodes        703500
        14334 leafs            630696
        61439 marksurfaces     245756
       244620 surfedges        978480
       122311 edges            978488
           26 textures         180668
              lightdata             0
              visdata               0
              entdata             650

8.521 seconds elapsed
Peak memory usage: 319174696 (304.4M)
