---- qbsp / ericw-tools v0.18.1 ----
Input file: Deem_Single_Player.map
Output file: Deem_Single_Player.bsp

---- LoadMapFile ----
*** WARNING 06: No info_player_deathmatch entities in level
        60252 faces
        10013 brushes
          529 entities
          113 unique texnames
         3843 texinfo

Opened WAD: F:/QuakeDev/wads/prototype_1_2.wad
Opened WAD: F:/QuakeDev/wads/rogue.wad
Opened WAD: F:/QuakeDev/wads/hipnotic.wad
Processing hull 0...
---- Brush_LoadEntity ----
         9868 brushes
         2155 planes
---- CSGFaces ----
        59382 brushfaces
        47225 csgfaces
        43111 mergedfaces
---- SolidBSP ----
        53694 split nodes
        22896 solid leafs
        29941 empty leafs
          858 water leafs
            0 detail leafs
            0 detail illusionary leafs
            0 detail fence leafs
            0 illusionary visblocker leafs
        96039 leaffaces
        90794 nodefaces
---- Portalize ----
        30799 vis leafs
        30799 vis clusters
       106569 vis portals
---- FillOutside ----
         1472 outleafs
---- MergeAll ----
        42547 mergefaces
---- SolidBSP ----
        25319 split nodes
         9347 solid leafs
        15548 empty leafs
          425 water leafs
            0 detail leafs
            0 detail illusionary leafs
            0 detail fence leafs
            0 illusionary visblocker leafs
        68222 leaffaces
        57029 nodefaces
---- Portalize ----
        15973 vis leafs
        15973 vis clusters
        58501 vis portals
---- Tjunc ----
        38790 world edges
       190662 edge points
        44033 edges added by tjunctions
            0 faces added by tjunctions
---- MakeFaceEdges ----
---- GrowRegions ----
Processing hull 1...
Processing hull 2...
*** WARNING 16: Texture __TB_empty not found
---- WriteBSPFile ----
Wrote Deem_Single_Player.bsp
         3048 planes            60960
        73629 vertexes         883548
        25923 nodes           1140612
         3381 texinfo          135240
        57963 faces           1622964
        51451 clipnodes        617412
        16593 leafs            730092
        69156 marksurfaces     276624
       275908 surfedges       1103632
       138175 edges           1105400
          123 textures        1377616
              lightdata             0
              visdata               0
              entdata           37315

9.501 seconds elapsed
Peak memory usage: 357640700 (341.1M)
